LTspice 24.1.8 for Windows
Circuit: F:\DESCARGAS\Materias\2025\TC2\RepositorioGIT\TC2BancoTrabajo\Semanal_5\Bonus3.net
Start Time: Sat Jun 14 13:02:48 2025
solver = Normal
Maximum thread count: 12
tnom = 27
temp = 27
method = modified trap
WARNING: Node n007 is floating.

.OP point found by inspection.
Total elapsed time: 0.027 seconds.

Files loaded:
F:\DESCARGAS\Materias\2025\TC2\RepositorioGIT\TC2BancoTrabajo\Semanal_5\Bonus3.net
C:\Users\pedro\AppData\Local\LTspice\lib\sub\opamp.sub

