LTspice 24.0.12 for Windows
Circuit: * Z:\home\pedro\UTN\MATERIAS\2025\TC2\Semanal#0\Draft2.asc
Start Time: Mon Apr  7 14:22:10 2025
solver = Normal
Maximum thread count: 4
tnom = 27
temp = 27
method = modified trap
Fatal Error: X1:b1 calls unknown device named i(h:x1:ie)
