LTspice 24.0.12 for Windows
Circuit: * Z:\home\pedro\UTN\MATERIAS\2025\TC2\TC2BancoTrabajo\Semanal#1\Draft2.asc
Start Time: Mon Apr 14 20:56:01 2025
solver = Normal
Maximum thread count: 4
tnom = 27
temp = 27
method = modified trap
.OP point found by inspection.
Total elapsed time: 0.416 seconds.

