LTspice 24.0.12 for Windows
Circuit: * Z:\home\pedro\UTN\MATERIAS\2025\TC2\TC2BancoTrabajo\Semanal#1\Draft3.asc
Start Time: Mon Apr 14 20:55:57 2025
solver = Normal
Maximum thread count: 4
tnom = 27
temp = 27
method = modified trap
Direct Newton iteration for .op point succeeded.
Total elapsed time: 0.515 seconds.

