LTspice 24.1.8 for Windows
Circuit: F:\DESCARGAS\Materias\2025\TC2\RepositorioGIT\TC2BancoTrabajo\Semanal_4\Bonus2.net
Start Time: Thu May 29 14:53:03 2025
solver = Normal
Maximum thread count: 12
tnom = 27
temp = 27
method = modified trap
.OP point found by inspection.
Total elapsed time: 0.994 seconds.

Files loaded:
F:\DESCARGAS\Materias\2025\TC2\RepositorioGIT\TC2BancoTrabajo\Semanal_4\Bonus2.net
C:\Users\pedro\AppData\Local\LTspice\lib\sub\opamp.sub

