LTspice 24.1.8 for Windows
Circuit: F:\DESCARGAS\Materias\2025\TC2\RepositorioGIT\TC2BancoTrabajo\Semanal_4\Draft1.net
Start Time: Thu May 29 21:48:05 2025
solver = Normal
Maximum thread count: 12
tnom = 27
temp = 27
method = modified trap
Direct Newton iteration for .op point succeeded.
.step r=1000
.step r=1200
.step r=1400
.step r=1600
.step r=1800
.step r=2000
Total elapsed time: 0.175 seconds.

Files loaded:
F:\DESCARGAS\Materias\2025\TC2\RepositorioGIT\TC2BancoTrabajo\Semanal_4\Draft1.net
C:\Users\pedro\AppData\Local\LTspice\lib\cmp\standard.jft

